@<TRIPOS>MOLECULE
MTX
 53 55 0 0 0
SMALL
GASTEIGER

@<TRIPOS>ATOM
      1 N           2.3950    0.5590    5.4700 N.ar    0  UNK0       -0.1932
      2 C           2.3100    0.2090    6.7380 C.ar    0  UNK0        0.2163
      3 N           3.4810    0.0800    7.4610 N.pl3   0  UNK0       -0.3274
      4 N           1.1580   -0.0240    7.3590 N.ar    0  UNK0       -0.1978
      5 C           0.0000    0.0810    6.7230 C.ar    0  UNK0        0.1491
      6 N          -1.1920   -0.1610    7.3690 N.pl3   0  UNK0       -0.3413
      7 C           0.0310    0.4670    5.3110 C.ar    0  UNK0        0.1477
      8 N          -1.0770    0.6040    4.5910 N.ar    0  UNK0       -0.2419
      9 C          -0.9890    0.9480    3.3240 C.ar    0  UNK0        0.0774
     10 C           0.2530    1.1790    2.7350 C.ar    0  UNK0        0.0528
     11 N           1.3630    1.0540    3.4310 N.ar    0  UNK0       -0.2324
     12 C           1.2970    0.7010    4.7170 C.ar    0  UNK0        0.1851
     13 C          -2.2440    1.0990    2.5030 C.3     0  UNK0        0.0555
     14 N          -2.5740   -0.1820    1.8750 N.pl3   0  UNK0       -0.3271
     15 C          -3.4380   -1.1380    2.5720 C.3     0  UNK0        0.0011
     16 C          -1.0560   -1.1070   -1.8870 C.ar    0  UNK0        0.0368
     17 C          -1.8810   -2.0190   -1.2210 C.ar    0  UNK0       -0.0479
     18 C          -2.3810   -1.7100    0.0220 C.ar    0  UNK0       -0.0399
     19 C          -2.0670   -0.4910    0.6180 C.ar    0  UNK0        0.0298
     20 C          -1.2500    0.4200   -0.0450 C.ar    0  UNK0       -0.0399
     21 C          -0.7420    0.1140   -1.2860 C.ar    0  UNK0       -0.0479
     22 C          -0.5180   -1.4360   -3.2210 C.2     0  UNK0        0.2446
     23 O          -0.7920   -2.5000   -3.7420 O.2     0  UNK0       -0.2702
     24 N           0.2760   -0.5560   -3.8620 N.am    1  GLU1       -0.3034
     25 CA          0.8110   -0.8820   -5.1860 C.3     1  GLU1        0.0632
     26 C           2.1350   -1.5840   -5.0340 C.2     1  GLU1        0.0620
     27 O           2.4890   -2.3920   -5.8610 O.co2   1  GLU1       -0.5479
     28 OXT         2.9220   -1.3130   -3.9810 O.co2   1  GLU1       -0.5479
     29 CB          1.0050    0.4050   -5.9890 C.3     1  GLU1       -0.0241
     30 CG         -0.3390    1.1180   -6.1430 C.3     1  GLU1       -0.0112
     31 CD         -0.1480    2.3860   -6.9330 C.2     1  GLU1        0.0418
     32 OE1         0.9510    2.6890   -7.3330 O.co2   1  GLU1       -0.5498
     33 OE2        -1.1980    3.1800   -7.1940 O.co2   1  GLU1       -0.5498
     34 H           4.3486    0.2465    7.0266 H       0  UNK0        0.1452
     35 H           3.4474   -0.1784    8.4104 H       0  UNK0        0.1452
     36 H          -1.1934   -0.4196    8.3189 H       0  UNK0        0.1438
     37 H          -2.0427   -0.0754    6.8809 H       0  UNK0        0.1438
     38 H           0.3028    1.4514    1.7409 H       0  UNK0        0.0849
     39 H          -2.0875    1.8379    1.7451 H       0  UNK0        0.0529
     40 H          -3.0503    1.4034    3.1371 H       0  UNK0        0.0529
     41 H          -3.7295   -0.7315    3.5179 H       0  UNK0        0.0428
     42 H          -2.9057   -2.0534    2.7260 H       0  UNK0        0.0428
     43 H          -4.3098   -1.3274    1.9812 H       0  UNK0        0.0428
     44 H          -2.1141   -2.9225   -1.6618 H       0  UNK0        0.0626
     45 H          -2.9899   -2.3824    0.5141 H       0  UNK0        0.0636
     46 H          -1.0251    1.3260    0.3950 H       0  UNK0        0.0636
     47 H          -0.1290    0.7864   -1.7729 H       0  UNK0        0.0626
     48 H           0.4965    0.3059   -3.4405 H       1  GLU1        0.1496
     49 HA          0.1250   -1.5225   -5.6998 H       1  GLU1        0.0560
     50 HB1         1.3949    0.1663   -6.9564 H       1  GLU1        0.0290
     51 HB2         1.6914    1.0454   -5.4755 H       1  GLU1        0.0290
     52 HG1        -0.7292    1.3561   -5.1755 H       1  GLU1        0.0325
     53 HG2        -1.0251    0.4778   -6.6571 H       1  GLU1        0.0325
@<TRIPOS>BOND
     1     1     2   ar
     2     1    12   ar
     3     2     3    1
     4     2     4   ar
     5     4     5   ar
     6     5     6    1
     7     5     7   ar
     8     7     8   ar
     9     7    12   ar
    10     8     9   ar
    11     9    10   ar
    12     9    13    1
    13    10    11   ar
    14    11    12   ar
    15    13    14    1
    16    14    15    1
    17    14    19    1
    18    16    17   ar
    19    16    21   ar
    20    16    22    1
    21    17    18   ar
    22    18    19   ar
    23    19    20   ar
    24    20    21   ar
    25    22    23    2
    26    22    24   am
    27    24    25    1
    28    25    26    1
    29    25    29    1
    30    26    27   ar
    31    26    28   ar
    32    29    30    1
    33    30    31    1
    34    31    32   ar
    35    31    33   ar
    36     3    34    1
    37     3    35    1
    38     6    36    1
    39     6    37    1
    40    10    38    1
    41    13    39    1
    42    13    40    1
    43    15    41    1
    44    15    42    1
    45    15    43    1
    46    17    44    1
    47    18    45    1
    48    20    46    1
    49    21    47    1
    50    24    48    1
    51    25    49    1
    52    29    50    1
    53    29    51    1
    54    30    52    1
    55    30    53    1
